2

H 0.0 0.0 0.0
H 0.0 0.0 0.2
2

H 0.0 0.0 0.0
H 0.0 0.0 0.3
2

H 0.0 0.0 0.0
H 0.0 0.0 0.4
2

H 0.0 0.0 0.0
H 0.0 0.0 0.5
2

H 0.0 0.0 0.0
H 0.0 0.0 0.6
2

H 0.0 0.0 0.0
H 0.0 0.0 0.7
2

H 0.0 0.0 0.0
H 0.0 0.0 0.8
2

H 0.0 0.0 0.0
H 0.0 0.0 0.9
2

H 0.0 0.0 0.0
H 0.0 0.0 1.0
2

H 0.0 0.0 0.0
H 0.0 0.0 1.1
2

H 0.0 0.0 0.0
H 0.0 0.0 1.2
2

H 0.0 0.0 0.0
H 0.0 0.0 1.3
2

H 0.0 0.0 0.0
H 0.0 0.0 1.4
2

H 0.0 0.0 0.0
H 0.0 0.0 1.5
2

H 0.0 0.0 0.0
H 0.0 0.0 1.6 
2

H 0.0 0.0 0.0
H 0.0 0.0 1.7
2

H 0.0 0.0 0.0
H 0.0 0.0 1.8 
2

H 0.0 0.0 0.0
H 0.0 0.0 1.9
2

H 0.0 0.0 0.0
H 0.0 0.0 2.0
